Circuit: * C:\Users\loreb\Desktop\Esami\Hardware and Software Co-Design\Progetto_Hardware_and_Software_Co-Design\Simulazioni\BEST.asc

Direct Newton iteration failed to find .op point.  (Use ".option noopiter" to skip.)
Starting Gmin stepping
Increasing initial diagonal Gmin to 100
Gmin = 100
Gmin = 10.7374
Gmin = 1.15292
Gmin = 0.123794
Gmin = 0.0132923
Gmin = 0.00142725
Gmin = 0.00015325
Gmin = 1.6455e-005
Gmin = 1.76685e-006
Gmin = 1.89714e-007
Gmin = 2.03704e-008
Gmin = 2.18725e-009
Gmin = 2.34854e-010
Gmin = 2.52173e-011
Gmin = 2.70769e-012
Gmin = 2.90735e-013
Gmin = 0
Gmin stepping succeeded in finding the operating point.


Date: Tue Oct 31 12:42:09 2023
Total elapsed time: 0.582 seconds.

tnom = 27
temp = 27
method = modified trap
totiter = 81961
traniter = 81438
tranpoints = 40720
accept = 24719
rejected = 16001
matrix size = 11
fillins = 5
solver = Normal
Matrix Compiler1: 708 bytes object code size  0.2/0.1/[0.1]
Matrix Compiler2: 1.02 KB object code size  0.1/0.1/[0.1]

