Circuit: * C:\Users\loreb\Desktop\Esami\Hardware and Software Co-Design\Progetto_Hardware_and_Software_Co-Design\Simulazioni\Draft3.asc

Fatal Error: Port(pin) count mismatch between the definition of subcircuit "opa1632" and instance: "xu1"
The instance has more connection terminals than the definition.
