Circuit: * C:\Users\loreb\Documents\GitHub\Hardware_and_Software_Co-Design\Simulazioni\Draft1.asc

WARNING: Node NC_02 is floating.

WARNING: Less than two connections to node NC_01.  This node is used by V2.
WARNING: Less than two connections to node NC_02.  This node is used by V2.
Direct Newton iteration for .op point succeeded.

Date: Sun Nov 12 15:10:16 2023
Total elapsed time: 0.145 seconds.

tnom = 27
temp = 27
method = modified trap
totiter = 2108
traniter = 2094
tranpoints = 1048
accept = 1048
rejected = 0
matrix size = 7
fillins = 0
solver = Normal
Matrix Compiler1:      12 opcodes  0.1/[0.0]/0.0
Matrix Compiler2: 427 bytes object code size  0.0/0.1/[0.0]

