Circuit: * C:\Users\loreb\Desktop\Esami\Hardware and Software Co-Design\Progetto_Hardware_and_Software_Co-Design\Simulazioni\Sim_MioCond.asc

Direct Newton iteration failed to find .op point.  (Use ".option noopiter" to skip.)
Starting Gmin stepping
Gmin = 10
Gmin = 1.07374
Gmin = 0.115292
Gmin = 0.0123794
Gmin = 0.00132923
Gmin = 0.000142725
Gmin = 1.5325e-005
Gmin = 1.6455e-006
Gmin = 1.76685e-007
Gmin = 1.89714e-008
Gmin = 2.03704e-009
Gmin = 2.18725e-010
Gmin = 2.34854e-011
Gmin = 2.52173e-012
Gmin = 2.70769e-013
Gmin = 0
Gmin stepping succeeded in finding the operating point.


Date: Mon Oct 30 14:32:02 2023
Total elapsed time: 2.952 seconds.

tnom = 27
temp = 27
method = modified trap
totiter = 720683
traniter = 720294
tranpoints = 360148
accept = 216144
rejected = 144004
matrix size = 10
fillins = 1
solver = Normal
Matrix Compiler1: 520 bytes object code size  0.1/0.1/[0.1]
Matrix Compiler2: 886 bytes object code size  0.1/0.1/[0.1]

