Circuit: * C:\Users\loreb\Desktop\Esami\Hardware and Software Co-Design\Progetto_Hardware_and_Software_Co-Design\Simulazioni\Sim_condizionamento.asc

WARNING: Less than two connections to node vw.  This node is used by v2.
Direct Newton iteration failed to find .op point.  (Use ".option noopiter" to skip.)
Starting Gmin stepping
Gmin = 10
Gmin = 1.07374
Gmin = 0.115292
Gmin = 0.0123794
Gmin = 0.00132923
Gmin = 0.000142725
Gmin = 1.5325e-05
Gmin = 1.6455e-06
Gmin = 1.76685e-07
Gmin = 1.89714e-08
Gmin = 2.03704e-09
Gmin = 2.18725e-10
Gmin = 2.34854e-11
Gmin = 2.52173e-12
Gmin = 2.70769e-13
Gmin = 0
Gmin stepping succeeded in finding the operating point.


Date: Fri Oct 27 23:21:49 2023
Total elapsed time: 0.208 seconds.

tnom = 27
temp = 27
method = modified trap
totiter = 2505
traniter = 2096
tranpoints = 1049
accept = 1049
rejected = 0
matrix size = 20
fillins = 15
solver = Normal
Avg thread counts: 2.3/3.6/3.6/2.3
Matrix Compiler1: 1.90 KB object code size  0.9/0.7/[0.3]
Matrix Compiler2: 2.11 KB object code size  0.4/0.6/[0.3]

