Circuit: * C:\Users\loreb\Documents\GitHub\Hardware_and_Software_Co-Design\Simulazioni\switch.asc

Direct Newton iteration for .op point succeeded.

Date: Wed Nov 15 03:30:31 2023
Total elapsed time: 0.110 seconds.

tnom = 27
temp = 27
method = modified trap
totiter = 2120
traniter = 2094
tranpoints = 1048
accept = 1048
rejected = 0
matrix size = 6
fillins = 0
solver = Normal
Matrix Compiler1: 182 bytes object code size  0.1/0.0/[0.0]
Matrix Compiler2: 448 bytes object code size  0.1/0.1/[0.0]

